Version 4.1
SHEET 1 880 680
WIRE 192 256 192 192
WIRE 352 256 352 192
WIRE 352 256 192 256
WIRE 512 256 512 192
WIRE 512 256 352 256
WIRE 352 304 352 256
FLAG 352 304 0
SYMBOL nmos 144 96 R0
SYMATTR InstName M1
SYMBOL nmos 304 96 R0
SYMATTR InstName M2
SYMBOL nmos 464 96 R0
SYMATTR InstName M3
